testData/tamu2000/pfcases_100_zone3/Equ_tx2000_hr_4375_mod_v23_zone3_pslf.raw
0  100.000 
THIS IS A SYNTHETIC POWER SYSTEM MODEL THAT DOES NOT REPRESE
DATA RESEARCH PROJECT AND CONTAINS NO CEII.
1004,  2,  34.568,  -17.855,  0.000,  0.000,  1,  1.02812,  -37.9424,  'O DONNEL',  230.00,  9
1021,  2,  21.114,  -10.630,  0.000,  0.000,  1,  1.00861,  -38.9624,  'BIG SPRI',  13.800,  9
1023,  2,  25.098,  -7.169,  0.000,  0.000,  1,  1.01000,  -33.6887,  'O DONNEL',  13.800,  9
1026,  2,  17.577,  -7.890,  0.000,  0.000,  1,  1.00448,  -37.8700,  'BIG SPRI',  13.800,  9
1033,  2,  129.212,  -37.832,  0.000,  0.000,  1,  1.00782,  -43.8747,  'MCCAMEY ',  230.00,  9
1039,  2,  18.769,  -7.569,  0.000,  0.000,  1,  1.00031,  -40.1226,  'FORT STO',  22.000,  9
1042,  2,  32.824,  -3.534,  0.000,  0.000,  1,  1.00000,  -36.4600,  'FORSAN 1',  13.800,  9
1048,  2,  68.421,  -12.241,  0.000,  0.000,  1,  1.00000,  -37.5967,  'MONAHANS',  18.000,  9
1049,  2,  52.860,  -5.919,  0.000,  0.000,  1,  1.00000,  -34.7352,  'MONAHANS',  18.000,  9
1053,  2,  44.699,  -12.089,  0.000,  0.000,  1,  1.00955,  -41.5612,  'MONAHANS',  230.00,  9
1057,  2,  48.315,  -13.405,  0.000,  0.000,  1,  1.00714,  -39.9591,  'LENORAH ',  18.000,  9
1063,  2,  29.000,  -4.686,  0.000,  0.000,  1,  1.02388,  -38.1036,  'BIG SPRI',  13.800,  9
1066,  2,  31.902,  -5.720,  0.000,  0.000,  1,  1.00000,  -36.6663,  'BIG SPRI',  13.800,  9
1070,  2,  32.960,  1.299,  0.000,  0.000,  1,  1.04000,  -41.6444,  'IRAAN 1 ',  13.800,  9
1072,  3,  40.710,  -4.133,  0.000,  0.000,  1,  1.01000,  -43.3147,  'ODESSA 1',  18.000,  9
1073,  2,  29.050,  -3.165,  0.000,  0.000,  1,  1.01000,  -41.0559,  'ODESSA 1',  18.000,  9
1074,  2,  30.322,  -1.761,  0.000,  0.000,  1,  1.01000,  -41.2837,  'ODESSA 1',  18.000,  9
1075,  2,  36.782,  -2.208,  0.000,  0.000,  1,  1.01000,  -42.0883,  'ODESSA 1',  18.000,  9
1076,  2,  76.302,  -6.672,  0.000,  0.000,  1,  1.01000,  -43.7085,  'ODESSA 1',  18.000,  9
1077,  2,  31.172,  -2.081,  0.000,  0.000,  1,  1.01000,  -41.4087,  'ODESSA 1',  18.000,  9
1081,  2,  64.728,  -23.338,  0.000,  0.000,  1,  1.01221,  -42.5882,  'ODESSA 1',  230.00,  9
1082,  2,  53.243,  -25.243,  0.000,  0.000,  1,  1.01731,  -41.7386,  'FORT STO',  115.00,  9
1084,  2,  89.920,  -26.657,  0.000,  0.000,  1,  1.03725,  -42.7751,  'BIG SPRI',  115.00,  9
2004,  2,  128.513,  -30.246,  0.000,  0.000,  2,  1.02466,  -49.6955,  'SAVOY 2 ',  13.800,  11
2005,  2,  110.251,  -26.705,  0.000,  0.000,  2,  1.02367,  -49.5337,  'SAVOY 3 ',  13.800,  11
2006,  2,  73.045,  -17.391,  0.000,  0.000,  2,  1.02000,  -48.9112,  'SAVOY 4 ',  13.800,  11
2013,  2,  3.090,  -11.634,  0.000,  0.000,  2,  1.04591,  -37.1695,  'PANHANDL',  18.000,  10
2019,  2,  6.358,  34.525,  0.000,  0.000,  2,  1.04000,  -36.8193,  'PANHANDL',  20.000,  10
2024,  2,  65.960,  -20.900,  0.000,  0.000,  2,  1.02799,  -49.6081,  'PARIS 2 ',  13.800,  11
2042,  2,  3.885,  -1.518,  0.000,  0.000,  2,  1.03263,  -34.2861,  'PANHANDL',  18.000,  10
2057,  3,  167.630,  -79.015,  0.000,  0.000,  2,  0.99000,  -43.8380,  'WICHITA ',  18.000,  11
2059,  2,  3.032,  -1.012,  0.000,  0.000,  2,  1.03096,  -33.1450,  'WHITE DE',  13.800,  10
2062,  2,  70.661,  -23.653,  0.000,  0.000,  2,  1.02000,  -42.4179,  'VERNON 1',  18.000,  10
2071,  2,  28.386,  -10.633,  0.000,  0.000,  2,  1.00339,  -43.7738,  'ARCHER 2',  18.000,  11
2078,  2,  57.651,  -17.385,  0.000,  0.000,  2,  1.02000,  -51.7957,  'MUENSTER',  13.800,  11
2100,  2,  10.939,  12.493,  0.000,  0.000,  2,  1.02116,  -35.8531,  'RALLS 1 ',  18.000,  10
2115,  2,  42.523,  -14.204,  0.000,  0.000,  2,  1.02485,  -49.0124,  'PARIS 1 ',  13.800,  11
2116,  2,  81.002,  -25.065,  0.000,  0.000,  2,  1.02843,  -49.5723,  'PARIS 1 ',  13.800,  11
2117,  2,  39.001,  -12.787,  0.000,  0.000,  2,  1.02337,  -48.8321,  'PARIS 1 ',  13.800,  11
2118,  2,  35.880,  -11.839,  0.000,  0.000,  2,  1.02245,  -48.6847,  'PARIS 1 ',  13.800,  11
2119,  2,  63.542,  -20.734,  0.000,  0.000,  2,  1.02757,  -49.4408,  'PARIS 1 ',  13.800,  11
2120,  2,  37.030,  -12.289,  0.000,  0.000,  2,  1.02290,  -48.7424,  'PARIS 1 ',  13.800,  11
2123,  2,  19.451,  -10.456,  0.000,  0.000,  2,  1.04014,  -35.2484,  'PANHANDL',  161.00,  10
2127,  2,  167.085,  -187.944,  0.000,  0.000,  2,  1.05487,  -38.8379,  'MIAMI 0 ',  500.00,  10
3017,  2,  30.866,  -1.160,  0.000,  0.000,  3,  1.01000,  -41.1070,  'BLACKWEL',  18.000,  27
3020,  2,  112.357,  -8.753,  0.000,  0.000,  3,  1.03000,  -48.1684,  'CHRISTOV',  13.800,  27
3028,  2,  47.298,  0.678,  0.000,  0.000,  3,  1.04000,  -44.9631,  'ABILENE ',  18.000,  27
3034,  2,  16.495,  1.978,  0.000,  0.000,  3,  1.03000,  -35.7486,  'SNYDER 1',  22.000,  27
3039,  2,  20.084,  -3.664,  0.000,  0.000,  3,  1.04000,  -40.2696,  'ROSCOE 2',  13.800,  27
3045,  2,  14.087,  -1.518,  0.000,  0.000,  3,  1.04000,  -38.6773,  'SILVER 4',  13.800,  27
3048,  2,  585.011,  -642.815,  0.000,  0.000,  3,  1.05034,  -46.9904,  'ROSCOE 5',  500.00,  27
3055,  2,  41.856,  -3.430,  0.000,  0.000,  3,  1.04000,  -42.1422,  'WINGATE ',  13.800,  27
3056,  2,  25.977,  0.349,  0.000,  0.000,  3,  1.04000,  -41.1594,  'WINGATE ',  13.800,  27
3057,  2,  26.506,  0.079,  0.000,  0.000,  3,  1.04000,  -41.2201,  'WINGATE ',  13.800,  27
3060,  2,  13.474,  -0.147,  0.000,  0.000,  3,  1.04000,  -39.7193,  'STERLING',  18.000,  27
3061,  2,  15.066,  -0.116,  0.000,  0.000,  3,  1.04000,  -40.5467,  'STERLING',  18.000,  27
3062,  2,  22.216,  -2.464,  0.000,  0.000,  3,  1.04000,  -41.5691,  'STERLING',  18.000,  27
3063,  2,  16.530,  -0.298,  0.000,  0.000,  3,  1.04000,  -41.1282,  'STERLING',  18.000,  27
3068,  2,  24.028,  1.543,  0.000,  0.000,  3,  1.04000,  -40.8576,  'TRENT 1 ',  20.000,  27
3071,  2,  14.541,  -5.074,  0.000,  0.000,  3,  1.00670,  -41.0440,  'NOLAN 1 ',  24.000,  27
3081,  2,  14.872,  -3.167,  0.000,  0.000,  3,  1.04000,  -38.9164,  'HERMLEIG',  20.000,  27
3084,  2,  16.617,  -8.860,  0.000,  0.000,  3,  1.00125,  -39.6237,  'MERKEL 1',  13.800,  27
3092,  2,  29.164,  4.151,  0.000,  0.000,  3,  1.04000,  -42.6694,  'ABILENE ',  13.800,  27
3095,  2,  26.675,  3.631,  0.000,  0.000,  3,  1.04000,  -41.2933,  'MERKEL 2',  18.000,  27
3098,  2,  8.350,  -2.019,  0.000,  0.000,  3,  1.04000,  -34.6334,  'FLUVANNA',  13.800,  27
3106,  3,  44.593,  -10.201,  0.000,  0.000,  3,  1.00000,  -51.0582,  'BUCHANAN',  13.200,  28
3118,  2,  19.720,  -3.132,  0.000,  0.000,  3,  1.00205,  -36.8098,  'SYNDER 2',  13.800,  27
3122,  2,  16.949,  -3.731,  0.000,  0.000,  3,  1.00000,  -35.9465,  'ROSCOE 1',  18.000,  27
3127,  2,  8.370,  3.139,  0.000,  0.000,  3,  1.01851,  -39.9003,  'SWEETWAT',  115.00,  27
3129,  2,  11.574,  -16.410,  0.000,  0.000,  3,  1.02355,  -39.5444,  'ROSCOE 3',  115.00,  27
3131,  2,  126.420,  -22.248,  0.000,  0.000,  3,  1.02000,  -43.3420,  'TUSOCOLA',  115.00,  27
4010,  2,  29.995,  -5.180,  0.000,  0.000,  4,  1.03000,  -88.2167,  'SARITA 3',  20.000,  21
4026,  2,  197.631,  -15.649,  0.000,  0.000,  4,  1.03000,  -61.9999,  'CHRISTIN',  13.800,  20
4030,  3,  173.077,  -21.535,  0.000,  0.000,  4,  1.01000,  -56.4150,  'FANNIN 2',  13.800,  21
4047,  2,  38.812,  6.970,  0.000,  0.000,  4,  1.02000,  -85.6251,  'FALCON H',  13.800,  19
4050,  2,  18.847,  -8.332,  0.000,  0.000,  4,  1.00987,  -98.8184,  'SEBASTIA',  13.800,  19
4058,  2,  27.288,  3.076,  0.000,  0.000,  4,  1.03000,  -78.7780,  'GREGORY ',  13.800,  21
4059,  2,  31.985,  3.014,  0.000,  0.000,  4,  1.03000,  -78.9953,  'GREGORY ',  13.800,  21
4060,  2,  22.791,  2.210,  0.000,  0.000,  4,  1.03000,  -78.1711,  'GREGORY ',  13.800,  21
4061,  2,  28.013,  3.142,  0.000,  0.000,  4,  1.03000,  -78.5341,  'GREGORY ',  13.800,  21
4062,  2,  26.789,  2.211,  0.000,  0.000,  4,  1.03000,  -78.1347,  'GREGORY ',  13.800,  21
4063,  2,  27.552,  3.448,  0.000,  0.000,  4,  1.03000,  -78.5018,  'GREGORY ',  13.800,  21
4082,  2,  21.665,  0.464,  0.000,  0.000,  4,  1.04000,  -84.1935,  'CORPUS C',  13.800,  21
4083,  2,  23.109,  0.479,  0.000,  0.000,  4,  1.04000,  -84.3486,  'CORPUS C',  13.800,  21
4084,  2,  26.736,  -2.017,  0.000,  0.000,  4,  1.04000,  -85.1705,  'CORPUS C',  13.800,  21
4085,  2,  37.399,  -2.740,  0.000,  0.000,  4,  1.04000,  -83.7918,  'CORPUS C',  13.800,  21
4105,  2,  90.168,  6.690,  0.000,  0.000,  4,  1.01000,  -82.7152,  'TAFT 2 1',  18.000,  21
4115,  2,  111.988,  -17.424,  0.000,  0.000,  4,  1.04000,  -80.5779,  'LAREDO 1',  13.800,  20
4116,  2,  106.478,  -17.524,  0.000,  0.000,  4,  1.04000,  -80.5248,  'LAREDO 1',  13.800,  20
4142,  2,  55.179,  -2.859,  0.000,  0.000,  4,  1.04000,  -87.0339,  'SARITA 1',  13.800,  21
4153,  2,  216.945,  -19.974,  0.000,  0.000,  4,  1.04000,  -89.2866,  'ARMSTRON',  18.000,  21
4160,  2,  89.860,  12.656,  0.000,  0.000,  4,  1.03000,  -81.7352,  'CORPUS C',  13.800,  21
4161,  2,  46.673,  5.990,  0.000,  0.000,  4,  1.03000,  -80.6005,  'CORPUS C',  13.800,  21
4162,  2,  47.204,  5.061,  0.000,  0.000,  4,  1.03000,  -80.6272,  'CORPUS C',  13.800,  21
4166,  2,  23.452,  -5.554,  0.000,  0.000,  4,  1.01357,  -87.6278,  'SARITA 2',  13.800,  21
4177,  2,  46.255,  1.531,  0.000,  0.000,  4,  1.04000,  -81.8789,  'BRUNI 1 ',  13.800,  20
4181,  2,  142.319,  -8.729,  0.000,  0.000,  4,  1.01598,  -78.7093,  'TAFT 1 0',  230.00,  21
4183,  2,  256.029,  -26.450,  0.000,  0.000,  4,  1.02537,  -91.6675,  'SAN PERL',  230.00,  19
4192,  2,  652.896,  12.994,  0.000,  0.000,  4,  1.02000,  -94.2295,  'BROWNSVI',  230.00,  19
4194,  2,  609.197,  -94.056,  0.000,  0.000,  4,  1.02000,  -100.5274,  'SEBASTIA',  115.00,  19
5020,  2,  54.533,  -20.929,  0.000,  0.000,  5,  1.02886,  -46.8401,  'JACKSBOR',  13.800,  12
5037,  2,  207.085,  -8.823,  0.000,  0.000,  5,  1.02480,  -49.7116,  'DALLAS 1',  13.200,  16
5038,  2,  200.970,  -8.086,  0.000,  0.000,  5,  1.02460,  -49.6646,  'DALLAS 1',  13.200,  16
5039,  2,  485.025,  -27.678,  0.000,  0.000,  5,  1.02714,  -50.5159,  'DALLAS 1',  13.200,  16
5040,  2,  156.025,  -6.499,  0.000,  0.000,  5,  1.02343,  -49.1903,  'DALLAS 1',  13.200,  16
5041,  2,  221.677,  -10.958,  0.000,  0.000,  5,  1.02522,  -49.8004,  'DALLAS 1',  13.200,  16
5042,  2,  187.501,  -7.204,  0.000,  0.000,  5,  1.02424,  -49.5553,  'DALLAS 1',  13.200,  16
5057,  2,  110.914,  -36.070,  0.000,  0.000,  5,  1.02837,  -46.1300,  'GRAHAM 2',  13.800,  12
5058,  2,  82.346,  -25.102,  0.000,  0.000,  5,  1.02612,  -45.5243,  'GRAHAM 3',  13.800,  12
5067,  2,  313.272,  -19.706,  0.000,  0.000,  5,  1.03000,  -49.4999,  'ARLINGTO',  13.800,  17
5068,  2,  298.032,  -19.212,  0.000,  0.000,  5,  1.03000,  -49.4252,  'ARLINGTO',  13.800,  17
5069,  2,  281.850,  -18.431,  0.000,  0.000,  5,  1.03000,  -49.3262,  'ARLINGTO',  13.800,  17
5089,  2,  78.849,  9.568,  0.000,  0.000,  5,  1.01000,  -54.2114,  'CLIFTON ',  13.800,  18
5166,  2,  139.651,  -19.498,  0.000,  0.000,  5,  1.04000,  -50.6478,  'DENTON 1',  13.800,  17
5198,  2,  128.214,  -36.573,  0.000,  0.000,  5,  1.03015,  -47.7224,  'BRYSON 1',  18.000,  12
5206,  2,  96.446,  -17.517,  0.000,  0.000,  5,  1.02697,  -47.2288,  'POOLVILL',  13.800,  12
5207,  2,  162.295,  -32.675,  0.000,  0.000,  5,  1.02947,  -47.9483,  'POOLVILL',  13.800,  12
5208,  2,  130.687,  -25.678,  0.000,  0.000,  5,  1.02871,  -47.7332,  'POOLVILL',  13.800,  12
5238,  2,  136.435,  -88.824,  0.000,  0.000,  5,  1.03063,  -46.4346,  'OLNEY 1 ',  18.000,  12
5243,  2,  116.894,  -31.595,  0.000,  0.000,  5,  1.03716,  -52.5738,  'GOLDTHWA',  13.800,  18
5262,  2,  291.405,  -21.531,  0.000,  0.000,  5,  1.02090,  -43.1232,  'GLEN ROS',  13.800,  18
5263,  2,  392.090,  -33.381,  0.000,  0.000,  5,  1.02357,  -44.3355,  'GLEN ROS',  13.800,  18
5281,  2,  129.870,  -14.245,  0.000,  0.000,  5,  1.02329,  -53.2328,  'TEMPLE 1',  13.800,  13
5282,  2,  153.297,  -16.854,  0.000,  0.000,  5,  1.02422,  -53.3668,  'TEMPLE 1',  13.800,  13
5283,  2,  199.815,  -23.042,  0.000,  0.000,  5,  1.02544,  -53.5381,  'TEMPLE 1',  13.800,  13
5298,  2,  276.507,  -29.163,  0.000,  0.000,  5,  1.04000,  -51.4460,  'MCKINNEY',  13.800,  16
5299,  2,  113.505,  -8.470,  0.000,  0.000,  5,  1.04000,  -51.2356,  'MCKINNEY',  13.800,  16
5300,  2,  144.897,  -12.199,  0.000,  0.000,  5,  1.04000,  -51.3052,  'MCKINNEY',  13.800,  16
5302,  2,  161.546,  -11.853,  0.000,  0.000,  5,  1.04000,  -50.3398,  'MCKINNEY',  13.800,  16
5303,  2,  228.630,  -20.462,  0.000,  0.000,  5,  1.04000,  -50.6705,  'MCKINNEY',  13.800,  16
5319,  2,  155.992,  -16.460,  0.000,  0.000,  5,  1.02267,  -48.0276,  'GRANBURY',  13.200,  18
5320,  2,  142.185,  -16.294,  0.000,  0.000,  5,  1.02225,  -47.9382,  'GRANBURY',  13.200,  18
5321,  2,  160.537,  -16.903,  0.000,  0.000,  5,  1.02293,  -48.0627,  'GRANBURY',  13.200,  18
5324,  2,  172.597,  -2.282,  0.000,  0.000,  5,  1.04000,  -49.2284,  'DALLAS 2',  13.800,  17
5325,  2,  172.569,  -1.021,  0.000,  0.000,  5,  1.04000,  -49.2248,  'DALLAS 2',  13.800,  17
5326,  2,  511.688,  -34.440,  0.000,  0.000,  5,  1.04000,  -50.7102,  'DALLAS 2',  13.800,  17
5343,  2,  116.570,  5.343,  0.000,  0.000,  5,  1.04000,  -51.8240,  'LEWISVIL',  13.800,  17
5360,  3,  156.751,  -24.595,  0.000,  0.000,  5,  1.01000,  -50.1820,  'RIESEL 1',  13.800,  13
5364,  2,  171.029,  -25.872,  0.000,  0.000,  5,  1.02850,  -48.2377,  'BRIDGEPO',  13.800,  12
5365,  2,  85.835,  -11.250,  0.000,  0.000,  5,  1.02607,  -47.5473,  'BRIDGEPO',  13.800,  12
5366,  2,  81.288,  -10.863,  0.000,  0.000,  5,  1.02550,  -47.3632,  'BRIDGEPO',  13.800,  12
5367,  2,  81.467,  -10.621,  0.000,  0.000,  5,  1.02559,  -47.4085,  'BRIDGEPO',  13.800,  12
5368,  2,  116.189,  -16.813,  0.000,  0.000,  5,  1.02736,  -47.9004,  'BRIDGEPO',  13.800,  12
5369,  2,  77.759,  -10.398,  0.000,  0.000,  5,  1.02522,  -47.2832,  'BRIDGEPO',  13.800,  12
5382,  2,  164.190,  -4.718,  0.000,  0.000,  5,  1.04000,  -50.5453,  'ENNIS 2 ',  13.800,  14
5383,  2,  144.406,  -3.192,  0.000,  0.000,  5,  1.04000,  -50.4156,  'ENNIS 3 ',  13.800,  14
5399,  2,  94.898,  -42.897,  0.000,  0.000,  5,  1.04135,  -46.1843,  'ALBANY 1',  13.800,  15
5415,  2,  61.323,  -15.729,  0.000,  0.000,  5,  1.03240,  -47.8146,  'PALO PIN',  13.800,  12
5416,  2,  60.715,  -15.393,  0.000,  0.000,  5,  1.03232,  -47.8082,  'PALO PIN',  13.800,  12
5417,  2,  67.453,  -17.326,  0.000,  0.000,  5,  1.03280,  -47.8840,  'PALO PIN',  13.800,  12
5418,  2,  69.320,  -18.709,  0.000,  0.000,  5,  1.03313,  -47.9140,  'PALO PIN',  13.800,  12
5419,  2,  115.618,  -32.657,  0.000,  0.000,  5,  1.03452,  -48.1333,  'PALO PIN',  13.800,  12
5444,  2,  1101.415,  -169.890,  0.000,  0.000,  5,  1.02510,  -50.0349,  'MIDLOTHI',  500.00,  17
6006,  2,  56.149,  -7.564,  0.000,  0.000,  6,  1.04000,  -54.2695,  'BASTROP ',  13.800,  25
6007,  2,  95.858,  -12.333,  0.000,  0.000,  6,  1.04000,  -53.6403,  'BASTROP ',  13.800,  25
6008,  2,  49.465,  -5.373,  0.000,  0.000,  6,  1.04000,  -54.2338,  'BASTROP ',  13.800,  25
6009,  2,  29.294,  -2.125,  0.000,  0.000,  6,  1.04000,  -53.9268,  'BASTROP ',  13.800,  25
6010,  2,  42.921,  -4.888,  0.000,  0.000,  6,  1.04000,  -54.1590,  'BASTROP ',  13.800,  25
6042,  2,  29.969,  1.882,  0.000,  0.000,  6,  1.04000,  -54.6483,  'AUSTIN 3',  13.800,  23
6062,  1,  249.077,  -10.077,  0.000,  0.000,  6,  1.02816,  -56.8946,  'BRENHAM ',  500.00,  25
6069,  2,  142.035,  -13.767,  0.000,  0.000,  6,  1.03000,  -57.3677,  'MARION 1',  18.000,  22
6070,  2,  53.078,  -5.734,  0.000,  0.000,  6,  1.03000,  -56.8607,  'MARION 1',  18.000,  22
6071,  2,  178.795,  -16.576,  0.000,  0.000,  6,  1.03000,  -57.4419,  'MARION 1',  18.000,  22
6072,  2,  65.790,  -6.417,  0.000,  0.000,  6,  1.03000,  -57.0152,  'MARION 1',  18.000,  22
6073,  2,  104.865,  -10.094,  0.000,  0.000,  6,  1.03000,  -57.2503,  'MARION 1',  18.000,  22
6074,  2,  105.686,  -10.860,  0.000,  0.000,  6,  1.03000,  -57.2538,  'MARION 1',  18.000,  22
6078,  2,  30.878,  -18.384,  0.000,  0.000,  6,  1.01784,  -54.0873,  'LA GRANG',  22.000,  25
6079,  2,  59.364,  -36.056,  0.000,  0.000,  6,  1.02208,  -54.6691,  'LA GRANG',  22.000,  25
6080,  2,  44.560,  -27.122,  0.000,  0.000,  6,  1.02069,  -54.4856,  'LA GRANG',  22.000,  25
6106,  2,  61.279,  -14.854,  0.000,  0.000,  6,  1.03448,  -55.2352,  'WINCHEST',  13.800,  25
6110,  2,  149.926,  -18.200,  0.000,  0.000,  6,  1.04000,  -53.3325,  'ROCKDALE',  13.800,  25
6111,  2,  152.204,  -18.031,  0.000,  0.000,  6,  1.04000,  -53.2213,  'ROCKDALE',  13.800,  25
6145,  2,  143.320,  3.046,  0.000,  0.000,  6,  1.03000,  -54.6463,  'SAN ANTO',  13.800,  22
6146,  2,  148.417,  3.082,  0.000,  0.000,  6,  1.03000,  -54.7609,  'SAN ANTO',  13.800,  22
6147,  3,  167.809,  1.239,  0.000,  0.000,  6,  1.03000,  -55.7878,  'SAN ANTO',  13.800,  22
6148,  2,  274.574,  -3.820,  0.000,  0.000,  6,  1.03000,  -56.6757,  'SAN ANTO',  13.800,  22
6149,  2,  506.817,  -11.661,  0.000,  0.000,  6,  1.03000,  -57.1902,  'SAN ANTO',  13.800,  22
6164,  2,  86.584,  -10.726,  0.000,  0.000,  6,  1.03000,  -56.5729,  'SEGUIN 1',  13.800,  22
6165,  2,  77.921,  -9.948,  0.000,  0.000,  6,  1.03000,  -56.5006,  'SEGUIN 1',  13.800,  22
6166,  2,  185.819,  -24.597,  0.000,  0.000,  6,  1.03000,  -56.9066,  'SEGUIN 1',  13.800,  22
6167,  2,  98.536,  -12.840,  0.000,  0.000,  6,  1.03000,  -56.6509,  'SEGUIN 1',  13.800,  22
6188,  1,  182.764,  -16.135,  0.000,  0.000,  6,  1.01503,  -57.0368,  'COLUMBUS',  230.00,  25
6195,  1,  46.211,  1.738,  0.000,  0.000,  6,  0.99618,  -62.5065,  'INDUSTRY',  115.00,  25
6213,  2,  34.975,  -4.848,  0.000,  0.000,  6,  1.04136,  -53.9945,  'MARBLE F',  13.800,  23
6214,  2,  65.593,  -9.074,  0.000,  0.000,  6,  1.04000,  -52.8183,  'MARBLE F',  13.800,  23
6215,  2,  188.396,  -59.881,  0.000,  0.000,  6,  1.04202,  -54.6481,  'MARBLE F',  13.800,  23
6216,  2,  85.577,  -20.418,  0.000,  0.000,  6,  1.04116,  -53.8574,  'MARBLE F',  13.800,  23
6243,  2,  130.315,  -0.781,  0.000,  0.000,  6,  1.04000,  -56.6309,  'ELMENDOR',  13.800,  22
6244,  2,  138.383,  -3.512,  0.000,  0.000,  6,  1.04000,  -55.8549,  'ELMENDOR',  13.800,  22
6245,  2,  161.539,  -5.492,  0.000,  0.000,  6,  1.04000,  -56.1450,  'ELMENDOR',  13.800,  22
6246,  2,  286.339,  -24.252,  0.000,  0.000,  6,  1.04000,  -56.9121,  'ELMENDOR',  13.800,  22
6247,  2,  251.115,  -15.403,  0.000,  0.000,  6,  1.04000,  -57.2333,  'ELMENDOR',  13.800,  22
6248,  2,  125.911,  -4.330,  0.000,  0.000,  6,  1.04000,  -56.7332,  'ELMENDOR',  13.800,  22
6249,  2,  103.538,  -0.156,  0.000,  0.000,  6,  1.04000,  -56.2924,  'ELMENDOR',  13.800,  22
6257,  2,  86.705,  1.002,  0.000,  0.000,  6,  1.03384,  -55.5797,  'AUSTIN 2',  13.800,  23
6258,  2,  48.180,  -0.214,  0.000,  0.000,  6,  1.03176,  -55.2519,  'AUSTIN 2',  13.800,  23
6260,  2,  96.484,  -0.164,  0.000,  0.000,  6,  1.03342,  -55.5071,  'AUSTIN 2',  13.800,  23
6295,  2,  104.200,  -7.312,  0.000,  0.000,  6,  1.03499,  -55.3243,  'CEDAR CR',  13.800,  23
6296,  2,  123.025,  -9.044,  0.000,  0.000,  6,  1.03526,  -55.3678,  'CEDAR CR',  13.800,  23
6297,  2,  45.670,  -2.797,  0.000,  0.000,  6,  1.03236,  -54.9283,  'CEDAR CR',  13.800,  23
...
 0 /End of Bus data, Begin Generator data
1004,  '1',  60.932,  -30.380,  44.940,  -30.380,  1.01000,  0,  253.200,  0.00000,  1.00000,  0.00000,  0.00000,  1.00000,  1,  100.0,  211.000,  63.300
1021,  '1',  57.613,  -28.730,  42.490,  -28.730,  1.00000,  0,  239.400,  0.00000,  1.00000,  0.00000,  0.00000,  1.00000,  1,  100.0,  199.500,  59.850
1023,  '1',  51.980,  -14.949,  38.340,  -25.920,  1.01000,  0,  216.000,  0.00000,  1.00000,  0.00000,  0.00000,  1.00000,  1,  100.0,  180.000,  54.000
1026,  '1',  35.866,  -17.880,  26.450,  -17.880,  1.00000,  0,  149.040,  0.00000,  1.00000,  0.00000,  0.00000,  1.00000,  1,  100.0,  124.200,  37.260
1033,  '1',  80.280,  -40.030,  59.210,  -40.030,  1.00000,  0,  333.600,  0.00000,  1.00000,  0.00000,  0.00000,  1.00000,  1,  100.0,  278.000,  83.400
1039,  '1',  42.597,  -21.240,  31.420,  -21.240,  1.00000,  0,  177.000,  0.00000,  1.00000,  0.00000,  0.00000,  1.00000,  1,  100.0,  147.500,  44.250
1042,  '1',  46.936,  -9.953,  25.960,  -17.550,  1.00000,  0,  146.280,  0.00000,  1.00000,  0.00000,  0.00000,  1.00000,  1,  100.0,  121.900,  36.570
1048,  '1',  97.560,  -19.749,  165.530,  -36.100,  1.00000,  0,  390.240,  0.00000,  0.10170,  0.00000,  0.00000,  1.00000,  1,  100.0,  325.200,  97.560
1049,  '1',  97.560,  -6.719,  165.530,  -36.100,  1.00000,  0,  390.240,  0.00000,  0.13490,  0.00000,  0.00000,  1.00000,  1,  100.0,  325.200,  97.560
1053,  '1',  53.640,  -19.850,  91.010,  -19.850,  1.00000,  0,  214.560,  0.00000,  0.16870,  0.00000,  0.00000,  1.00000,  1,  100.0,  178.800,  53.640
1057,  '1',  46.204,  -17.280,  25.560,  -17.280,  1.00000,  0,  144.000,  0.00000,  1.00000,  0.00000,  0.00000,  1.00000,  1,  100.0,  120.000,  36.000
1063,  '1',  39.795,  0.000,  0.000,  0.000,  1.01000,  0,  276.000,  0.00000,  1.00000,  0.00000,  0.00000,  1.00000,  1,  100.0,  230.000,  69.000
1066,  '1',  41.153,  -10.526,  30.350,  -20.520,  1.00000,  0,  171.000,  0.00000,  1.00000,  0.00000,  0.00000,  1.00000,  1,  100.0,  142.500,  42.750
1070,  '1',  46.351,  19.753,  34.190,  -23.110,  1.04000,  0,  192.600,  0.00000,  1.00000,  0.00000,  0.00000,  1.00000,  1,  100.0,  160.500,  48.150
1072,  '1',  41.090,  -12.665,  97.800,  -21.330,  1.01000,  0,  230.560,  0.00000,  0.30820,  0.00000,  0.00000,  1.00000,  1,  100.0,  192.130,  57.640
1073,  '1',  57.640,  -10.723,  97.800,  -21.330,  1.01000,  0,  230.560,  0.00000,  0.19480,  0.00000,  0.00000,  1.00000,  1,  100.0,  192.130,  57.640
1074,  '1',  57.640,  -8.075,  97.800,  -21.330,  1.01000,  0,  230.560,  0.00000,  0.20960,  0.00000,  0.00000,  1.00000,  1,  100.0,  192.130,  57.640
1075,  '1',  57.640,  -9.836,  97.800,  -21.330,  1.01000,  0,  230.560,  0.00000,  0.12370,  0.00000,  0.00000,  1.00000,  1,  100.0,  192.130,  57.640
1076,  '1',  57.640,  -19.629,  97.800,  -21.330,  1.01000,  0,  230.560,  0.00000,  0.10660,  0.00000,  0.00000,  1.00000,  1,  100.0,  192.130,  57.640
1077,  '1',  57.640,  -8.792,  97.800,  -21.330,  1.01000,  0,  230.560,  0.00000,  0.15380,  0.00000,  0.00000,  1.00000,  1,  100.0,  192.130,  57.640
1081,  '1',  85.950,  -31.800,  145.830,  -31.800,  1.01000,  0,  343.800,  0.00000,  0.14960,  0.00000,  0.00000,  1.00000,  1,  100.0,  286.500,  85.950
1082,  '1',  43.317,  -21.600,  31.950,  -21.600,  1.00000,  0,  180.000,  0.00000,  1.00000,  0.00000,  0.00000,  1.00000,  1,  100.0,  150.000,  45.000
1084,  '1',  33.352,  24.600,  24.600,  -16.630,  1.04000,  0,  138.600,  0.00000,  1.00000,  0.00000,  0.00000,  1.00000,  1,  100.0,  115.500,  34.650
2004,  '1',  117.540,  -43.490,  199.430,  -43.490,  1.02000,  0,  470.160,  0.00000,  0.10640,  0.00000,  0.00000,  1.00000,  1,  100.0,  391.800,  117.540
2005,  '1',  117.540,  -43.490,  199.430,  -43.490,  1.02000,  0,  470.160,  0.00000,  0.22750,  0.00000,  0.00000,  1.00000,  1,  100.0,  391.800,  117.540
2006,  '1',  117.540,  -40.798,  199.430,  -43.490,  1.02000,  0,  470.160,  0.00000,  0.20040,  0.00000,  0.00000,  1.00000,  1,  100.0,  391.800,  117.540
2013,  '1',  56.092,  -28.890,  42.730,  -28.890,  1.00000,  0,  240.720,  0.00000,  1.00000,  0.00000,  0.00000,  1.00000,  1,  100.0,  200.600,  60.180
2019,  '1',  145.533,  -19.940,  46.430,  -31.390,  1.04000,  0,  261.600,  0.00000,  1.00000,  0.00000,  0.00000,  1.00000,  1,  100.0,  218.000,  65.400
2024,  '1',  50.000,  -18.500,  84.830,  -18.500,  1.02000,  0,  200.000,  0.00000,  0.15080,  0.00000,  0.00000,  1.00000,  1,  100.0,  166.670,  50.000
2042,  '1',  31.656,  -11.460,  16.950,  -11.460,  1.01000,  0,  95.520,  0.00000,  1.00000,  0.00000,  0.00000,  1.00000,  1,  100.0,  79.600,  23.880
2057,  '1',  241.832,  -210.295,  335.520,  -87.840,  0.99000,  0,  864.000,  0.00000,  0.17700,  0.00000,  0.00000,  1.00000,  1,  100.0,  720.000,  216.000
2059,  '1',  40.055,  -11.520,  17.040,  -11.520,  1.00000,  0,  96.000,  0.00000,  1.00000,  0.00000,  0.00000,  1.00000,  1,  100.0,  80.000,  24.000
2062,  '1',  69.581,  -18.729,  28.840,  -19.500,  1.02000,  0,  162.480,  0.00000,  1.00000,  0.00000,  0.00000,  1.00000,  1,  100.0,  135.400,  40.620
2071,  '1',  46.307,  -21.600,  31.950,  -21.600,  1.00000,  0,  180.000,  0.00000,  1.00000,  0.00000,  0.00000,  1.00000,  1,  100.0,  150.000,  45.000
2078,  '1',  34.732,  -11.996,  23.960,  -16.200,  1.02000,  0,  135.000,  0.00000,  1.00000,  0.00000,  0.00000,  1.00000,  1,  100.0,  112.500,  33.750
2100,  '1',  65.745,  -21.600,  31.950,  -21.600,  1.02000,  0,  180.000,  0.00000,  1.00000,  0.00000,  0.00000,  1.00000,  1,  100.0,  150.000,  45.000
2115,  '1',  55.410,  -20.500,  94.020,  -20.500,  1.00000,  0,  221.660,  0.00000,  0.14250,  0.00000,  0.00000,  1.00000,  1,  100.0,  184.720,  55.410
2116,  '1',  55.410,  -20.500,  94.020,  -20.500,  1.00000,  0,  221.660,  0.00000,  0.18690,  0.00000,  0.00000,  1.00000,  1,  100.0,  184.720,  55.410
2117,  '1',  55.410,  -20.500,  94.020,  -20.500,  1.00000,  0,  221.660,  0.00000,  0.32540,  0.00000,  0.00000,  1.00000,  1,  100.0,  184.720,  55.410
2118,  '1',  55.410,  -20.500,  94.020,  -20.500,  1.00000,  0,  221.660,  0.00000,  0.10610,  0.00000,  0.00000,  1.00000,  1,  100.0,  184.720,  55.410
2119,  '1',  55.410,  -20.500,  94.020,  -20.500,  1.00000,  0,  221.660,  0.00000,  0.13600,  0.00000,  0.00000,  1.00000,  1,  100.0,  184.720,  55.410
2120,  '1',  55.410,  -20.500,  94.020,  -20.500,  1.01000,  0,  221.660,  0.00000,  0.20680,  0.00000,  0.00000,  1.00000,  1,  100.0,  184.720,  55.410
2123,  '1',  72.263,  -26.160,  38.700,  -26.160,  1.00000,  0,  218.040,  0.00000,  1.00000,  0.00000,  0.00000,  1.00000,  1,  100.0,  181.700,  54.510
2127,  '1',  150.889,  -41.560,  61.470,  -41.560,  1.04000,  0,  346.320,  0.00000,  1.00000,  0.00000,  0.00000,  1.00000,  1,  100.0,  288.600,  86.580
3017,  '1',  48.950,  -14.208,  36.100,  -24.410,  1.01000,  0,  203.400,  0.00000,  1.00000,  0.00000,  0.00000,  1.00000,  1,  100.0,  169.500,  50.850
3020,  '1',  43.317,  -2.215,  31.950,  -21.600,  1.03000,  0,  180.000,  0.00000,  1.00000,  0.00000,  0.00000,  1.00000,  1,  100.0,  150.000,  45.000
3028,  '1',  61.742,  0.327,  42.600,  -28.800,  1.04000,  0,  240.000,  0.00000,  1.00000,  0.00000,  0.00000,  1.00000,  1,  100.0,  200.000,  60.000
3034,  '1',  37.684,  4.854,  27.800,  -18.790,  1.03000,  0,  156.600,  0.00000,  1.00000,  0.00000,  0.00000,  1.00000,  1,  100.0,  130.500,  39.150
3039,  '1',  60.354,  5.003,  44.520,  -30.100,  1.04000,  0,  250.800,  0.00000,  1.00000,  0.00000,  0.00000,  1.00000,  1,  100.0,  209.000,  62.700
3045,  '1',  134.100,  1.386,  227.520,  -49.620,  1.04000,  0,  536.400,  0.00000,  0.14470,  0.00000,  0.00000,  1.00000,  1,  100.0,  447.000,  134.100
3048,  '1',  69.595,  -34.700,  51.330,  -34.700,  1.04000,  0,  289.200,  0.00000,  1.00000,  0.00000,  0.00000,  1.00000,  1,  100.0,  241.000,  72.300
3055,  '1',  70.801,  3.719,  52.220,  -35.300,  1.04000,  0,  294.200,  0.00000,  1.00000,  0.00000,  0.00000,  1.00000,  1,  100.0,  245.170,  73.550
3056,  '1',  70.801,  2.464,  52.220,  -35.300,  1.04000,  0,  294.200,  0.00000,  1.00000,  0.00000,  0.00000,  1.00000,  1,  100.0,  245.170,  73.550
3057,  '1',  70.801,  1.767,  52.220,  -35.300,  1.04000,  0,  294.200,  0.00000,  1.00000,  0.00000,  0.00000,  1.00000,  1,  100.0,  245.170,  73.550
3060,  '1',  47.829,  1.667,  35.280,  -23.850,  1.04000,  0,  198.750,  0.00000,  1.00000,  0.00000,  0.00000,  1.00000,  1,  100.0,  165.630,  49.690
3061,  '1',  47.829,  1.934,  35.280,  -23.850,  1.04000,  0,  198.750,  0.00000,  1.00000,  0.00000,  0.00000,  1.00000,  1,  100.0,  165.630,  49.690
3062,  '1',  47.829,  2.755,  35.280,  -23.850,  1.04000,  0,  198.750,  0.00000,  1.00000,  0.00000,  0.00000,  1.00000,  1,  100.0,  165.630,  49.690
3063,  '1',  47.829,  1.891,  35.280,  -23.850,  1.04000,  0,  198.750,  0.00000,  1.00000,  0.00000,  0.00000,  1.00000,  1,  100.0,  165.630,  49.690
3068,  '1',  43.317,  22.654,  31.950,  -21.600,  1.04000,  0,  180.000,  0.00000,  1.00000,  0.00000,  0.00000,  1.00000,  1,  100.0,  150.000,  45.000
3071,  '1',  49.150,  -24.510,  36.250,  -24.510,  1.00000,  0,  204.240,  0.00000,  1.00000,  0.00000,  0.00000,  1.00000,  1,  100.0,  170.200,  51.060
3081,  '1',  71.906,  2.633,  53.040,  -35.860,  1.04000,  0,  298.800,  0.00000,  1.00000,  0.00000,  0.00000,  1.00000,  1,  100.0,  249.000,  74.700
3084,  '1',  67.139,  -33.480,  49.520,  -33.480,  1.00000,  0,  279.000,  0.00000,  1.00000,  0.00000,  0.00000,  1.00000,  1,  100.0,  232.500,  69.750
3092,  '1',  57.755,  3.276,  42.600,  -28.800,  1.04000,  0,  240.000,  0.00000,  1.00000,  0.00000,  0.00000,  1.00000,  1,  100.0,  200.000,  60.000
3095,  '1',  34.827,  8.845,  25.690,  -17.370,  1.04000,  0,  144.720,  0.00000,  1.00000,  0.00000,  0.00000,  1.00000,  1,  100.0,  120.600,  36.180
3098,  '1',  46.204,  3.086,  34.080,  -23.040,  1.04000,  0,  192.000,  0.00000,  1.00000,  0.00000,  0.00000,  1.00000,  1,  100.0,  160.000,  48.000
3106,  '1',  60.385,  -19.964,  62.477,  -2.690,  1.00000,  0,  65.880,  0.00000,  0.29220,  0.00000,  0.00000,  1.00000,  1,  100.0,  162.800,  0.000
3118,  '1',  34.653,  -17.280,  25.560,  -17.280,  1.00000,  0,  144.000,  0.00000,  1.00000,  0.00000,  0.00000,  1.00000,  1,  100.0,  120.000,  36.000
3122,  '1',  56.889,  -19.872,  41.960,  -28.370,  1.00000,  0,  236.400,  0.00000,  1.00000,  0.00000,  0.00000,  1.00000,  1,  100.0,  197.000,  59.100
3127,  '1',  38.985,  -19.440,  28.760,  -19.440,  1.00000,  0,  162.000,  0.00000,  1.00000,  0.00000,  0.00000,  1.00000,  1,  100.0,  135.000,  40.500
3129,  '1',  36.532,  -18.220,  26.940,  -18.220,  1.00000,  0,  151.800,  0.00000,  1.00000,  0.00000,  0.00000,  1.00000,  1,  100.0,  126.500,  37.950
3131,  '1',  32.921,  -7.497,  24.280,  -16.420,  1.02000,  0,  136.800,  0.00000,  1.00000,  0.00000,  0.00000,  1.00000,  1,  100.0,  114.000,  34.200
4010,  '1',  58.218,  4.580,  42.940,  -29.030,  1.03000,  0,  241.920,  0.00000,  1.00000,  0.00000,  0.00000,  1.00000,  1,  100.0,  201.600,  60.480
4026,  '1',  123.000,  6.751,  191.060,  -50.020,  1.03000,  0,  492.000,  0.00000,  0.32770,  0.00000,  0.00000,  1.00000,  1,  100.0,  410.000,  123.000
4030,  '1',  208.704,  -13.763,  290.040,  -75.930,  1.01000,  0,  746.880,  0.00000,  0.27970,  0.00000,  0.00000,  1.00000,  1,  100.0,  622.400,  186.720
4047,  '1',  59.825,  3.581,  75.102,  -3.230,  1.02000,  0,  79.200,  0.00000,  0.32270,  0.00000,  0.00000,  1.00000,  1,  100.0,  195.700,  0.000
4050,  '1',  57.755,  -28.800,  42.600,  -28.800,  1.00000,  0,  240.000,  0.00000,  1.00000,  0.00000,  0.00000,  1.00000,  1,  100.0,  200.000,  60.000
4058,  '1',  43.200,  13.152,  73.300,  -15.980,  1.03000,  0,  172.800,  0.00000,  0.13700,  0.00000,  0.00000,  1.00000,  1,  100.0,  144.000,  43.200
4059,  '1',  43.200,  14.834,  73.300,  -15.980,  1.03000,  0,  172.800,  0.00000,  0.15140,  0.00000,  0.00000,  1.00000,  1,  100.0,  144.000,  43.200
4060,  '1',  43.200,  9.103,  73.300,  -15.980,  1.03000,  0,  172.800,  0.00000,  0.13940,  0.00000,  0.00000,  1.00000,  1,  100.0,  144.000,  43.200
4061,  '1',  51.700,  13.248,  87.720,  -19.130,  1.03000,  0,  206.800,  0.00000,  0.21560,  0.00000,  0.00000,  1.00000,  1,  100.0,  172.330,  51.700
4062,  '1',  51.700,  9.920,  87.720,  -19.130,  1.03000,  0,  206.800,  0.00000,  0.25930,  0.00000,  0.00000,  1.00000,  1,  100.0,  172.330,  51.700
4063,  '1',  51.700,  13.685,  87.720,  -19.130,  1.03000,  0,  206.800,  0.00000,  0.14410,  0.00000,  0.00000,  1.00000,  1,  100.0,  172.330,  51.700
4082,  '1',  73.020,  15.485,  123.890,  -27.020,  1.04000,  0,  292.080,  0.00000,  0.13810,  0.00000,  0.00000,  1.00000,  1,  100.0,  243.400,  73.020
4083,  '1',  73.020,  16.760,  123.890,  -27.020,  1.04000,  0,  292.080,  0.00000,  0.15700,  0.00000,  0.00000,  1.00000,  1,  100.0,  243.400,  73.020
4084,  '1',  73.020,  31.337,  123.890,  -27.020,  1.04000,  0,  292.080,  0.00000,  0.19110,  0.00000,  0.00000,  1.00000,  1,  100.0,  243.400,  73.020
4085,  '1',  204.160,  36.252,  179.170,  -39.070,  1.04000,  0,  422.400,  0.00000,  0.31920,  0.00000,  0.00000,  1.00000,  1,  100.0,  352.000,  105.600
4105,  '1',  55.568,  -7.876,  38.340,  -25.920,  1.01000,  0,  216.000,  0.00000,  1.00000,  0.00000,  0.00000,  1.00000,  1,  100.0,  180.000,  54.000
4115,  '1',  39.540,  23.941,  67.090,  -14.630,  1.04000,  0,  158.160,  0.00000,  0.11310,  0.00000,  0.00000,  1.00000,  1,  100.0,  131.800,  39.540
4116,  '1',  39.540,  22.369,  67.090,  -14.630,  1.04000,  0,  158.160,  0.00000,  0.15150,  0.00000,  0.00000,  1.00000,  1,  100.0,  131.800,  39.540
4142,  '1',  54.290,  25.135,  40.040,  -27.070,  1.04000,  0,  225.600,  0.00000,  1.00000,  0.00000,  0.00000,  1.00000,  1,  100.0,  188.000,  56.400
4153,  '1',  81.782,  48.594,  60.320,  -40.780,  1.04000,  0,  339.840,  0.00000,  1.00000,  0.00000,  0.00000,  1.00000,  1,  100.0,  283.200,  84.960
4160,  '1',  59.330,  29.917,  100.660,  -21.950,  1.03000,  0,  237.320,  0.00000,  0.18820,  0.00000,  0.00000,  1.00000,  1,  100.0,  197.770,  59.330
4161,  '1',  59.330,  12.691,  100.660,  -21.950,  1.03000,  0,  237.320,  0.00000,  0.12390,  0.00000,  0.00000,  1.00000,  1,  100.0,  197.770,  59.330
4162,  '1',  59.330,  11.582,  100.660,  -21.950,  1.03000,  0,  237.320,  0.00000,  0.17220,  0.00000,  0.00000,  1.00000,  1,  100.0,  197.770,  59.330
4166,  '1',  58.044,  -28.940,  42.810,  -28.940,  1.00000,  0,  241.200,  0.00000,  1.00000,  0.00000,  0.00000,  1.00000,  1,  100.0,  201.000,  60.300
4177,  '1',  43.317,  2.658,  31.950,  -21.600,  1.04000,  0,  180.000,  0.00000,  1.00000,  0.00000,  0.00000,  1.00000,  1,  100.0,  150.000,  45.000
4181,  '1',  61.771,  42.620,  42.620,  -28.810,  1.04000,  0,  240.120,  0.00000,  1.00000,  0.00000,  0.00000,  1.00000,  1,  100.0,  200.100,  60.030
4183,  '1',  58.622,  43.240,  43.240,  -29.230,  1.03000,  0,  243.600,  0.00000,  1.00000,  0.00000,  0.00000,  1.00000,  1,  100.0,  203.000,  60.900
4192,  '1',  462.149,  7.975,  726.490,  -158.450,  1.02000,  0,  1712.76,  0.00000,  0.14340,  0.00000,  0.00000,  1.00000,  1,  100.0,  1427.31,  428.190
4194,  '1',  58.218,  22.611,  42.940,  -29.030,  1.02000,  0,  241.920,  0.00000,  1.00000,  0.00000,  0.00000,  1.00000,  1,  100.0,  201.600,  60.480
5020,  '1',  37.045,  -17.280,  25.560,  -17.280,  1.00000,  0,  144.000,  0.00000,  1.00000,  0.00000,  0.00000,  1.00000,  1,  100.0,  120.000,  36.000
5037,  '1',  222.100,  -34.240,  157.010,  -34.240,  1.02000,  0,  370.160,  0.00000,  0.29910,  0.00000,  0.00000,  1.00000,  1,  100.0,  308.470,  92.540
5038,  '1',  222.100,  -34.240,  157.010,  -34.240,  1.02000,  0,  370.160,  0.00000,  0.12330,  0.00000,  0.00000,  1.00000,  1,  100.0,  308.470,  92.540
5039,  '1',  222.100,  -34.240,  157.010,  -34.240,  1.02000,  0,  370.160,  0.00000,  0.21470,  0.00000,  0.00000,  1.00000,  1,  100.0,  308.470,  92.540
5040,  '1',  222.100,  -34.240,  157.010,  -34.240,  1.02000,  0,  370.160,  0.00000,  0.19240,  0.00000,  0.00000,  1.00000,  1,  100.0,  308.470,  92.540
5041,  '1',  222.100,  -34.240,  157.010,  -34.240,  1.02000,  0,  370.160,  0.00000,  0.11590,  0.00000,  0.00000,  1.00000,  1,  100.0,  308.470,  92.540
5042,  '1',  222.100,  -34.240,  157.010,  -34.240,  1.02000,  0,  370.160,  0.00000,  0.19130,  0.00000,  0.00000,  1.00000,  1,  100.0,  308.470,  92.540
5057,  '1',  184.050,  -35.230,  161.530,  -35.230,  1.00000,  0,  380.820,  0.00000,  0.19130,  0.00000,  0.00000,  1.00000,  1,  100.0,  317.350,  95.200
5058,  '1',  184.060,  -35.230,  161.530,  -35.230,  1.00000,  0,  380.820,  0.00000,  0.29820,  0.00000,  0.00000,  1.00000,  1,  100.0,  317.350,  95.200
5067,  '1',  254.200,  -21.684,  223.080,  -48.650,  1.03000,  0,  525.920,  0.00000,  0.32610,  0.00000,  0.00000,  1.00000,  1,  100.0,  438.270,  131.480
5068,  '1',  254.200,  -21.676,  223.080,  -48.650,  1.03000,  0,  525.920,  0.00000,  0.11690,  0.00000,  0.00000,  1.00000,  1,  100.0,  438.270,  131.480
5069,  '1',  254.200,  -20.799,  223.080,  -48.650,  1.03000,  0,  525.920,  0.00000,  0.10560,  0.00000,  0.00000,  1.00000,  1,  100.0,  438.270,  131.480
5089,  '1',  37.876,  10.378,  47.569,  -2.050,  1.01000,  0,  50.160,  0.00000,  0.24100,  0.00000,  0.00000,  1.00000,  1,  100.0,  123.900,  0.000
5166,  '1',  37.950,  15.283,  64.390,  -14.040,  1.04000,  0,  151.800,  0.00000,  0.13910,  0.00000,  0.00000,  1.00000,  1,  100.0,  126.500,  37.950
5198,  '1',  46.307,  -21.600,  31.950,  -21.600,  1.00000,  0,  180.000,  0.00000,  1.00000,  0.00000,  0.00000,  1.00000,  1,  100.0,  150.000,  45.000
5206,  '1',  144.230,  -27.600,  126.570,  -27.600,  1.01000,  0,  298.400,  0.00000,  0.11980,  0.00000,  0.00000,  1.00000,  1,  100.0,  248.670,  74.600
5207,  '1',  144.230,  -27.600,  126.570,  -27.600,  1.01000,  0,  298.400,  0.00000,  0.18090,  0.00000,  0.00000,  1.00000,  1,  100.0,  248.670,  74.600
5208,  '1',  144.230,  -27.600,  126.570,  -27.600,  1.01000,  0,  298.400,  0.00000,  0.10560,  0.00000,  0.00000,  1.00000,  1,  100.0,  248.670,  74.600
5238,  '1',  69.460,  -32.400,  47.930,  -32.400,  1.00000,  0,  270.000,  0.00000,  1.00000,  0.00000,  0.00000,  1.00000,  1,  100.0,  225.000,  67.500
5243,  '1',  46.307,  -21.600,  31.950,  -21.600,  1.00000,  0,  180.000,  0.00000,  1.00000,  0.00000,  0.00000,  1.00000,  1,  100.0,  150.000,  45.000
5262,  '1',  1215.000,  -99.630,  447.120,  -99.630,  1.01000,  0,  1458.00,  0.00000,  0.26310,  0.00000,  0.00000,  1.00000,  1,  100.0,  1215.00,  364.500
5263,  '1',  1215.000,  -99.630,  447.120,  -99.630,  1.01000,  0,  1458.00,  0.00000,  0.16260,  0.00000,  0.00000,  1.00000,  1,  100.0,  1215.00,  364.500
5281,  '1',  80.320,  -29.720,  136.280,  -29.720,  1.00000,  0,  321.280,  0.00000,  0.10660,  0.00000,  0.00000,  1.00000,  1,  100.0,  267.730,  80.320
5282,  '1',  80.320,  -29.720,  136.280,  -29.720,  1.00000,  0,  321.280,  0.00000,  0.23940,  0.00000,  0.00000,  1.00000,  1,  100.0,  267.730,  80.320
5283,  '1',  80.320,  -29.720,  136.280,  -29.720,  1.00000,  0,  321.280,  0.00000,  0.10650,  0.00000,  0.00000,  1.00000,  1,  100.0,  267.730,  80.320
5298,  '1',  34.500,  47.125,  58.530,  -12.760,  1.04000,  0,  138.000,  0.00000,  0.13260,  0.00000,  0.00000,  1.00000,  1,  100.0,  115.000,  34.500
5299,  '1',  34.500,  22.757,  58.530,  -12.760,  1.04000,  0,  138.000,  0.00000,  0.32280,  0.00000,  0.00000,  1.00000,  1,  100.0,  115.000,  34.500
5300,  '1',  34.500,  27.471,  58.530,  -12.760,  1.04000,  0,  138.000,  0.00000,  0.21910,  0.00000,  0.00000,  1.00000,  1,  100.0,  115.000,  34.500
5302,  '1',  139.130,  28.387,  236.050,  -51.480,  1.04000,  0,  556.500,  0.00000,  0.13300,  0.00000,  0.00000,  1.00000,  1,  100.0,  463.750,  139.130
5303,  '1',  139.130,  38.496,  236.050,  -51.480,  1.04000,  0,  556.500,  0.00000,  0.17920,  0.00000,  0.00000,  1.00000,  1,  100.0,  463.750,  139.130
5319,  '1',  78.840,  -29.170,  133.770,  -29.170,  1.01000,  0,  315.360,  0.00000,  0.25070,  0.00000,  0.00000,  1.00000,  1,  100.0,  262.800,  78.840
5320,  '1',  78.840,  -29.170,  133.770,  -29.170,  1.01000,  0,  315.360,  0.00000,  0.28140,  0.00000,  0.00000,  1.00000,  1,  100.0,  262.800,  78.840
5321,  '1',  78.840,  -29.170,  133.770,  -29.170,  1.01000,  0,  315.360,  0.00000,  0.12810,  0.00000,  0.00000,  1.00000,  1,  100.0,  262.800,  78.840
5324,  '1',  204.530,  33.973,  144.590,  -31.530,  1.04000,  0,  340.880,  0.00000,  0.21670,  0.00000,  0.00000,  1.00000,  1,  100.0,  284.070,  85.220
5325,  '1',  204.530,  35.452,  144.590,  -31.530,  1.04000,  0,  340.880,  0.00000,  0.15030,  0.00000,  0.00000,  1.00000,  1,  100.0,  284.070,  85.220
5326,  '1',  204.530,  95.187,  144.590,  -31.530,  1.04000,  0,  340.880,  0.00000,  0.18810,  0.00000,  0.00000,  1.00000,  1,  100.0,  284.070,  85.220
5343,  '1',  63.433,  20.534,  79.667,  -3.430,  1.04000,  0,  84.000,  0.00000,  0.24140,  0.00000,  0.00000,  1.00000,  1,  100.0,  207.500,  0.000
5360,  '1',  349.505,  -153.459,  469.730,  -122.980,  1.01000,  0,  1209.60,  0.00000,  0.25510,  0.00000,  0.00000,  1.00000,  1,  100.0,  1008.00,  302.400
5364,  '1',  123.730,  -23.680,  108.590,  -23.680,  1.00000,  0,  256.000,  0.00000,  0.13030,  0.00000,  0.00000,  1.00000,  1,  100.0,  213.330,  64.000
5365,  '1',  123.730,  -23.680,  108.590,  -23.680,  1.00000,  0,  256.000,  0.00000,  0.11650,  0.00000,  0.00000,  1.00000,  1,  100.0,  213.330,  64.000
5366,  '1',  123.730,  -23.680,  108.590,  -23.680,  1.00000,  0,  256.000,  0.00000,  0.15490,  0.00000,  0.00000,  1.00000,  1,  100.0,  213.330,  64.000
5367,  '1',  123.730,  -23.680,  108.590,  -23.680,  1.00000,  0,  256.000,  0.00000,  0.10020,  0.00000,  0.00000,  1.00000,  1,  100.0,  213.330,  64.000
5368,  '1',  123.730,  -23.680,  108.590,  -23.680,  1.00000,  0,  256.000,  0.00000,  0.36180,  0.00000,  0.00000,  1.00000,  1,  100.0,  213.330,  64.000
5369,  '1',  123.730,  -23.680,  108.590,  -23.680,  1.00000,  0,  256.000,  0.00000,  0.24440,  0.00000,  0.00000,  1.00000,  1,  100.0,  213.330,  64.000
5382,  '1',  121.220,  58.141,  106.380,  -23.200,  1.04000,  0,  250.800,  0.00000,  0.24770,  0.00000,  0.00000,  1.00000,  1,  100.0,  209.000,  62.700
5383,  '1',  121.220,  51.141,  106.380,  -23.200,  1.04000,  0,  250.800,  0.00000,  0.39820,  0.00000,  0.00000,  1.00000,  1,  100.0,  209.000,  62.700
5399,  '1',  51.123,  -23.850,  35.270,  -23.850,  1.04000,  0,  198.720,  0.00000,  1.00000,  0.00000,  0.00000,  1.00000,  1,  100.0,  165.600,  49.680
5415,  '1',  36.600,  -13.540,  62.100,  -13.540,  1.00000,  0,  146.400,  0.00000,  0.14030,  0.00000,  0.00000,  1.00000,  1,  100.0,  122.000,  36.600
5416,  '1',  36.600,  -13.540,  62.100,  -13.540,  1.00000,  0,  146.400,  0.00000,  0.26480,  0.00000,  0.00000,  1.00000,  1,  100.0,  122.000,  36.600
5417,  '1',  36.600,  -13.540,  62.100,  -13.540,  1.00000,  0,  146.400,  0.00000,  0.16960,  0.00000,  0.00000,  1.00000,  1,  100.0,  122.000,  36.600
5418,  '1',  35.640,  -13.190,  60.470,  -13.190,  1.00000,  0,  142.560,  0.00000,  0.34000,  0.00000,  0.00000,  1.00000,  1,  100.0,  118.800,  35.640
5419,  '1',  35.640,  -13.190,  60.470,  -13.190,  1.00000,  0,  142.560,  0.00000,  0.16420,  0.00000,  0.00000,  1.00000,  1,  100.0,  118.800,  35.640
5444,  '1',  604.980,  -223.840,  1026.440,  -223.840,  1.01000,  0,  2419.92,  0.00000,  0.34260,  0.00000,  0.00000,  1.00000,  1,  100.0,  2016.60,  604.980
6006,  '1',  63.900,  7.720,  108.420,  -23.640,  1.04000,  0,  255.600,  0.00000,  0.18770,  0.00000,  0.00000,  1.00000,  1,  100.0,  213.000,  63.900
6007,  '1',  247.080,  12.078,  216.830,  -47.290,  1.04000,  0,  511.200,  0.00000,  0.13420,  0.00000,  0.00000,  1.00000,  1,  100.0,  426.000,  127.800
6008,  '1',  59.500,  6.945,  100.950,  -22.010,  1.04000,  0,  238.000,  0.00000,  0.20160,  0.00000,  0.00000,  1.00000,  1,  100.0,  198.330,  59.500
6009,  '1',  59.500,  4.059,  100.950,  -22.010,  1.04000,  0,  238.000,  0.00000,  0.18430,  0.00000,  0.00000,  1.00000,  1,  100.0,  198.330,  59.500
6010,  '1',  59.500,  5.506,  100.950,  -22.010,  1.04000,  0,  238.000,  0.00000,  0.15620,  0.00000,  0.00000,  1.00000,  1,  100.0,  198.330,  59.500
6042,  '1',  97.885,  6.953,  122.908,  -5.290,  1.04000,  0,  129.600,  0.00000,  0.18770,  0.00000,  0.00000,  1.00000,  1,  100.0,  320.200,  0.000
6069,  '1',  54.410,  -13.811,  92.320,  -20.130,  1.03000,  0,  217.640,  0.00000,  0.22480,  0.00000,  0.00000,  1.00000,  1,  100.0,  181.370,  54.410
6070,  '1',  54.410,  -5.749,  92.320,  -20.130,  1.03000,  0,  217.640,  0.00000,  0.24660,  0.00000,  0.00000,  1.00000,  1,  100.0,  181.370,  54.410
6071,  '1',  54.410,  -16.922,  92.320,  -20.130,  1.03000,  0,  217.640,  0.00000,  0.15280,  0.00000,  0.00000,  1.00000,  1,  100.0,  181.370,  54.410
6072,  '1',  54.410,  -6.753,  92.320,  -20.130,  1.03000,  0,  217.640,  0.00000,  0.19250,  0.00000,  0.00000,  1.00000,  1,  100.0,  181.370,  54.410
6073,  '1',  54.410,  -10.390,  92.320,  -20.130,  1.03000,  0,  217.640,  0.00000,  0.14260,  0.00000,  0.00000,  1.00000,  1,  100.0,  181.370,  54.410
6074,  '1',  54.410,  -10.823,  92.320,  -20.130,  1.03000,  0,  217.640,  0.00000,  0.11150,  0.00000,  0.00000,  1.00000,  1,  100.0,  181.370,  54.410
6078,  '1',  169.000,  -68.730,  262.510,  -68.730,  1.00000,  0,  676.000,  0.00000,  0.28900,  0.00000,  0.00000,  1.00000,  1,  100.0,  563.330,  169.000
6079,  '1',  169.000,  -68.730,  262.510,  -68.730,  1.00000,  0,  676.000,  0.00000,  0.25330,  0.00000,  0.00000,  1.00000,  1,  100.0,  563.330,  169.000
6080,  '1',  169.000,  -68.730,  262.510,  -68.730,  1.00000,  0,  676.000,  0.00000,  0.32510,  0.00000,  0.00000,  1.00000,  1,  100.0,  563.330,  169.000
6106,  '1',  36.300,  61.590,  61.590,  -13.430,  1.04000,  0,  145.200,  0.00000,  0.12010,  0.00000,  0.00000,  1.00000,  1,  100.0,  121.000,  36.300
6110,  '1',  177.180,  10.575,  275.220,  -72.050,  1.04000,  0,  708.720,  0.00000,  0.16800,  0.00000,  0.00000,  1.00000,  1,  100.0,  590.600,  177.180
6111,  '1',  198.450,  10.926,  308.260,  -80.700,  1.04000,  0,  793.800,  0.00000,  0.21900,  0.00000,  0.00000,  1.00000,  1,  100.0,  661.500,  198.450
6145,  '1',  321.120,  -5.828,  227.010,  -49.510,  1.03000,  0,  535.200,  0.00000,  0.14770,  0.00000,  0.00000,  1.00000,  1,  100.0,  446.000,  133.800
6146,  '1',  321.120,  -6.145,  227.010,  -49.510,  1.03000,  0,  535.200,  0.00000,  0.11950,  0.00000,  0.00000,  1.00000,  1,  100.0,  446.000,  133.800
6147,  '1',  242.886,  -10.676,  474.390,  -103.450,  1.03000,  0,  1118.40,  0.00000,  0.10440,  0.00000,  0.00000,  1.00000,  1,  100.0,  932.000,  279.600
6148,  '1',  216.600,  -19.959,  367.500,  -80.140,  1.03000,  0,  866.400,  0.00000,  0.23830,  0.00000,  0.00000,  1.00000,  1,  100.0,  722.000,  216.600
6149,  '1',  216.600,  -37.231,  367.500,  -80.140,  1.03000,  0,  866.400,  0.00000,  0.12770,  0.00000,  0.00000,  1.00000,  1,  100.0,  722.000,  216.600
6164,  '1',  70.520,  -6.195,  119.640,  -26.090,  1.03000,  0,  282.060,  0.00000,  0.30070,  0.00000,  0.00000,  1.00000,  1,  100.0,  235.050,  70.520
6165,  '1',  70.520,  -5.933,  119.640,  -26.090,  1.03000,  0,  282.060,  0.00000,  0.18390,  0.00000,  0.00000,  1.00000,  1,  100.0,  235.050,  70.520
6166,  '1',  70.520,  -12.848,  119.640,  -26.090,  1.03000,  0,  282.060,  0.00000,  0.25100,  0.00000,  0.00000,  1.00000,  1,  100.0,  235.050,  70.520
6167,  '1',  70.520,  -7.078,  119.640,  -26.090,  1.03000,  0,  282.060,  0.00000,  0.13970,  0.00000,  0.00000,  1.00000,  1,  100.0,  235.050,  70.520
6213,  '1',  54.384,  -2.940,  68.286,  -2.940,  1.04000,  0,  72.000,  0.00000,  0.33650,  0.00000,  0.00000,  1.00000,  1,  100.0,  177.900,  0.000
6214,  '1',  168.838,  -8.657,  212.059,  -9.130,  1.04000,  0,  223.600,  0.00000,  0.21900,  0.00000,  0.00000,  1.00000,  1,  100.0,  552.300,  0.000
6215,  '1',  168.838,  -9.130,  212.059,  -9.130,  1.04000,  0,  223.600,  0.00000,  0.20110,  0.00000,  0.00000,  1.00000,  1,  100.0,  552.300,  0.000
6216,  '1',  168.838,  -9.130,  212.059,  -9.130,  1.04000,  0,  223.600,  0.00000,  0.37760,  0.00000,  0.00000,  1.00000,  1,  100.0,  552.300,  0.000
6243,  '1',  106.140,  22.240,  93.150,  -20.310,  1.04000,  0,  219.600,  0.00000,  0.28800,  0.00000,  0.00000,  1.00000,  1,  100.0,  183.000,  54.900
6244,  '1',  214.560,  26.987,  151.680,  -33.080,  1.04000,  0,  357.600,  0.00000,  0.12500,  0.00000,  0.00000,  1.00000,  1,  100.0,  298.000,  89.400
6245,  '1',  214.560,  31.228,  151.680,  -33.080,  1.04000,  0,  357.600,  0.00000,  0.24960,  0.00000,  0.00000,  1.00000,  1,  100.0,  298.000,  89.400
6246,  '1',  214.560,  59.537,  151.680,  -33.080,  1.04000,  0,  357.600,  0.00000,  0.16990,  0.00000,  0.00000,  1.00000,  1,  100.0,  298.000,  89.400
6247,  '1',  106.330,  49.043,  93.320,  -20.350,  1.04000,  0,  220.000,  0.00000,  0.11730,  0.00000,  0.00000,  1.00000,  1,  100.0,  183.330,  55.000
6248,  '1',  106.330,  24.757,  93.320,  -20.350,  1.04000,  0,  220.000,  0.00000,  0.27550,  0.00000,  0.00000,  1.00000,  1,  100.0,  183.330,  55.000
6249,  '1',  106.330,  16.618,  93.320,  -20.350,  1.04000,  0,  220.000,  0.00000,  0.17480,  0.00000,  0.00000,  1.00000,  1,  100.0,  183.330,  55.000
6257,  '1',  58.200,  -21.530,  98.750,  -21.530,  1.02000,  0,  232.800,  0.00000,  0.15520,  0.00000,  0.00000,  1.00000,  1,  100.0,  194.000,  58.200
6258,  '1',  58.200,  -21.530,  98.750,  -21.530,  1.02000,  0,  232.800,  0.00000,  0.26310,  0.00000,  0.00000,  1.00000,  1,  100.0,  194.000,  58.200
6260,  '1',  77.100,  -28.530,  130.810,  -28.530,  1.02000,  0,  308.400,  0.00000,  0.11970,  0.00000,  0.00000,  1.00000,  1,  100.0,  257.000,  77.100
6295,  '1',  61.870,  -22.890,  104.970,  -22.890,  1.02000,  0,  247.480,  0.00000,  0.21970,  0.00000,  0.00000,  1.00000,  1,  100.0,  206.230,  61.870
6296,  '1',  61.870,  -22.890,  104.970,  -22.890,  1.02000,  0,  247.480,  0.00000,  0.25670,  0.00000,  0.00000,  1.00000,  1,  100.0,  206.230,  61.870
6297,  '1',  61.900,  -22.890,  104.970,  -22.890,  1.02000,  0,  247.480,  0.00000,  0.14170,  0.00000,  0.00000,  1.00000,  1,  100.0,  206.230,  61.900
6302,  '1',  74.180,  -27.440,  125.850,  -27.440,  1.00000,  0,  296.700,  0.00000,  0.25960,  0.00000,  0.00000,  1.00000,  1,  100.0,  247.250,  74.180
6303,  '1',  74.180,  -27.440,  125.850,  -27.440,  1.00000,  0,  296.700,  0.00000,  0.27270,  0.00000,  0.00000,  1.00000,  1,  100.0,  247.250,  74.180
6304,  '1',  74.180,  -27.440,  125.850,  -27.440,  1.00000,  0,  296.700,  0.00000,  0.11710,  0.00000,  0.00000,  1.00000,  1,  100.0,  247.250,  74.180
...
 0 /End of Generator data, Begin Branch data
1004,  1023,  '99',  0.01277,  0.30614,  0.00000,  0.00,  0.00,  0.00,  0.00000,  0.000,  0.00000,  0.00000,  0.00000,  0.00000,  1
1004,  1057,  '99',  0.64470,  3.89967,  0.00000,  0.00,  0.00,  0.00,  0.00000,  0.000,  0.00000,  0.00000,  0.00000,  0.00000,  1
1004,  2019,  '99',  0.10791,  1.06396,  0.00000,  0.00,  0.00,  0.00,  0.00000,  0.000,  0.00000,  0.00000,  0.00000,  0.00000,  1
1004,  2062,  '99',  0.84846,  4.15364,  0.00000,  0.00,  0.00,  0.00,  0.00000,  0.000,  0.00000,  0.00000,  0.00000,  0.00000,  1
1004,  2100,  '99',  0.04576,  0.58408,  0.00000,  0.00,  0.00,  0.00,  0.00000,  0.000,  0.00000,  0.00000,  0.00000,  0.00000,  1
1004,  2127,  '99',  0.15638,  0.91325,  0.00000,  0.00,  0.00,  0.00,  0.00000,  0.000,  0.00000,  0.00000,  0.00000,  0.00000,  1
1004,  3034,  '99',  0.34147,  2.48897,  0.00000,  0.00,  0.00,  0.00,  0.00000,  0.000,  0.00000,  0.00000,  0.00000,  0.00000,  1
1004,  3039,  '99',  0.03112,  0.32316,  0.00000,  0.00,  0.00,  0.00,  0.00000,  0.000,  0.00000,  0.00000,  0.00000,  0.00000,  1
1004,  3045,  '99',  0.79393,  4.84418,  0.00000,  0.00,  0.00,  0.00,  0.00000,  0.000,  0.00000,  0.00000,  0.00000,  0.00000,  1
1004,  3048,  '99',  0.04352,  0.32286,  0.00000,  0.00,  0.00,  0.00,  0.00000,  0.000,  0.00000,  0.00000,  0.00000,  0.00000,  1
1004,  3055,  '99',  0.82494,  4.71582,  0.00000,  0.00,  0.00,  0.00,  0.00000,  0.000,  0.00000,  0.00000,  0.00000,  0.00000,  1
1004,  3081,  '99',  0.03871,  0.41330,  0.00000,  0.00,  0.00,  0.00,  0.00000,  0.000,  0.00000,  0.00000,  0.00000,  0.00000,  1
1004,  3098,  '99',  0.02622,  0.42693,  0.00000,  0.00,  0.00,  0.00,  0.00000,  0.000,  0.00000,  0.00000,  0.00000,  0.00000,  1
1004,  3118,  '99',  0.20636,  1.92336,  0.00000,  0.00,  0.00,  0.00,  0.00000,  0.000,  0.00000,  0.00000,  0.00000,  0.00000,  1
1004,  3127,  '99',  0.64712,  2.73500,  0.00000,  0.00,  0.00,  0.00,  0.00000,  0.000,  0.00000,  0.00000,  0.00000,  0.00000,  1
1004,  3129,  '99',  0.86407,  2.89922,  0.00000,  0.00,  0.00,  0.00,  0.00000,  0.000,  0.00000,  0.00000,  0.00000,  0.00000,  1
1021,  1026,  '99',  0.02243,  0.80916,  0.00000,  0.00,  0.00,  0.00,  0.00000,  0.000,  0.00000,  0.00000,  0.00000,  0.00000,  1
1021,  1042,  '99',  0.57325,  3.76899,  0.00000,  0.00,  0.00,  0.00,  0.00000,  0.000,  0.00000,  0.00000,  0.00000,  0.00000,  1
1021,  1063,  '99',  0.15536,  2.23038,  0.00000,  0.00,  0.00,  0.00,  0.00000,  0.000,  0.00000,  0.00000,  0.00000,  0.00000,  1
1021,  1084,  '99',  0.01318,  0.19120,  0.00000,  0.00,  0.00,  0.00,  0.00000,  0.000,  0.00000,  0.00000,  0.00000,  0.00000,  1
1021,  3048,  '99',  0.38571,  3.25664,  0.00000,  0.00,  0.00,  0.00,  0.00000,  0.000,  0.00000,  0.00000,  0.00000,  0.00000,  1
1021,  3062,  '99',  -0.07275,  4.43461,  0.00000,  0.00,  0.00,  0.00,  0.00000,  0.000,  0.00000,  0.00000,  0.00000,  0.00000,  1
1023,  2100,  '99',  0.07614,  3.15987,  0.00000,  0.00,  0.00,  0.00,  0.00000,  0.000,  0.00000,  0.00000,  0.00000,  0.00000,  1
1023,  3098,  '99',  0.01793,  2.26888,  0.00000,  0.00,  0.00,  0.00,  0.00000,  0.000,  0.00000,  0.00000,  0.00000,  0.00000,  1
1026,  1042,  '99',  0.37612,  2.72351,  0.00000,  0.00,  0.00,  0.00,  0.00000,  0.000,  0.00000,  0.00000,  0.00000,  0.00000,  1
1026,  1063,  '99',  0.08666,  1.71527,  0.00000,  0.00,  0.00,  0.00,  0.00000,  0.000,  0.00000,  0.00000,  0.00000,  0.00000,  1
1026,  1066,  '99',  0.57945,  3.71200,  0.00000,  0.00,  0.00,  0.00,  0.00000,  0.000,  0.00000,  0.00000,  0.00000,  0.00000,  1
1026,  1084,  '99',  0.07684,  0.48054,  0.00000,  0.00,  0.00,  0.00,  0.00000,  0.000,  0.00000,  0.00000,  0.00000,  0.00000,  1
1033,  1039,  '99',  0.07084,  0.79463,  0.00000,  0.00,  0.00,  0.00,  0.00000,  0.000,  0.00000,  0.00000,  0.00000,  0.00000,  1
1033,  1070,  '99',  0.05314,  0.56379,  0.00000,  0.00,  0.00,  0.00,  0.00000,  0.000,  0.00000,  0.00000,  0.00000,  0.00000,  1
1033,  1081,  '99',  0.00300,  0.03091,  0.00000,  0.00,  0.00,  0.00,  0.00000,  0.000,  0.00000,  0.00000,  0.00000,  0.00000,  1
1033,  1082,  '99',  0.08199,  0.28399,  0.00000,  0.00,  0.00,  0.00,  0.00000,  0.000,  0.00000,  0.00000,  0.00000,  0.00000,  1
1033,  3020,  '99',  0.03578,  0.82351,  0.00000,  0.00,  0.00,  0.00,  0.00000,  0.000,  0.00000,  0.00000,  0.00000,  0.00000,  1
1033,  4026,  '99',  0.22561,  4.49634,  0.00000,  0.00,  0.00,  0.00,  0.00000,  0.000,  0.00000,  0.00000,  0.00000,  0.00000,  1
1033,  4115,  '99',  0.13920,  3.22118,  0.00000,  0.00,  0.00,  0.00,  0.00000,  0.000,  0.00000,  0.00000,  0.00000,  0.00000,  1
1033,  4116,  '99',  0.17968,  3.38783,  0.00000,  0.00,  0.00,  0.00,  0.00000,  0.000,  0.00000,  0.00000,  0.00000,  0.00000,  1
1039,  1048,  '99',  0.08348,  3.10421,  0.00000,  0.00,  0.00,  0.00,  0.00000,  0.000,  0.00000,  0.00000,  0.00000,  0.00000,  1
1039,  1053,  '99',  0.00870,  4.15536,  0.00000,  0.00,  0.00,  0.00,  0.00000,  0.000,  0.00000,  0.00000,  0.00000,  0.00000,  1
1039,  1070,  '99',  1.17727,  4.15745,  0.00000,  0.00,  0.00,  0.00,  0.00000,  0.000,  0.00000,  0.00000,  0.00000,  0.00000,  1
1039,  1082,  '99',  0.01332,  0.16916,  0.00000,  0.00,  0.00,  0.00,  0.00000,  0.000,  0.00000,  0.00000,  0.00000,  0.00000,  1
1042,  1057,  '99',  -0.00365,  1.58201,  0.00000,  0.00,  0.00,  0.00,  0.00000,  0.000,  0.00000,  0.00000,  0.00000,  0.00000,  1
1042,  1063,  '99',  0.07610,  1.00880,  0.00000,  0.00,  0.00,  0.00,  0.00000,  0.000,  0.00000,  0.00000,  0.00000,  0.00000,  1
1042,  1066,  '99',  -0.01670,  0.50534,  0.00000,  0.00,  0.00,  0.00,  0.00000,  0.000,  0.00000,  0.00000,  0.00000,  0.00000,  1
1042,  1084,  '99',  0.58747,  2.01161,  0.00000,  0.00,  0.00,  0.00,  0.00000,  0.000,  0.00000,  0.00000,  0.00000,  0.00000,  1
1048,  1049,  '99',  0.00166,  0.34072,  0.00000,  0.00,  0.00,  0.00,  0.00000,  0.000,  0.00000,  0.00000,  0.00000,  0.00000,  1
1048,  1053,  '99',  0.00193,  0.25470,  0.00000,  0.00,  0.00,  0.00,  0.00000,  0.000,  0.00000,  0.00000,  0.00000,  0.00000,  1
1048,  1076,  '99',  0.43297,  2.87496,  0.00000,  0.00,  0.00,  0.00,  0.00000,  0.000,  0.00000,  0.00000,  0.00000,  0.00000,  1
1048,  1081,  '99',  0.57082,  3.86093,  0.00000,  0.00,  0.00,  0.00,  0.00000,  0.000,  0.00000,  0.00000,  0.00000,  0.00000,  1
1048,  1082,  '99',  0.41703,  1.74142,  0.00000,  0.00,  0.00,  0.00,  0.00000,  0.000,  0.00000,  0.00000,  0.00000,  0.00000,  1
1048,  3048,  '99',  0.42368,  3.05115,  0.00000,  0.00,  0.00,  0.00,  0.00000,  0.000,  0.00000,  0.00000,  0.00000,  0.00000,  1
1049,  1053,  '99',  -0.00908,  0.45584,  0.00000,  0.00,  0.00,  0.00,  0.00000,  0.000,  0.00000,  0.00000,  0.00000,  0.00000,  1
1049,  1082,  '99',  0.66055,  3.13645,  0.00000,  0.00,  0.00,  0.00,  0.00000,  0.000,  0.00000,  0.00000,  0.00000,  0.00000,  1
1053,  1076,  '99',  0.48383,  3.86027,  0.00000,  0.00,  0.00,  0.00,  0.00000,  0.000,  0.00000,  0.00000,  0.00000,  0.00000,  1
1053,  1081,  '99',  0.00299,  0.02983,  0.00000,  0.00,  0.00,  0.00,  0.00000,  0.000,  0.00000,  0.00000,  0.00000,  0.00000,  1
1053,  1082,  '99',  0.50010,  2.34337,  0.00000,  0.00,  0.00,  0.00,  0.00000,  0.000,  0.00000,  0.00000,  0.00000,  0.00000,  1
1053,  3048,  '99',  0.46555,  4.09565,  0.00000,  0.00,  0.00,  0.00,  0.00000,  0.000,  0.00000,  0.00000,  0.00000,  0.00000,  1
1057,  1063,  '99',  -0.03782,  1.33929,  0.00000,  0.00,  0.00,  0.00,  0.00000,  0.000,  0.00000,  0.00000,  0.00000,  0.00000,  1
1057,  1066,  '99',  -0.01775,  1.41276,  0.00000,  0.00,  0.00,  0.00,  0.00000,  0.000,  0.00000,  0.00000,  0.00000,  0.00000,  1
1057,  1076,  '99',  0.21878,  3.18429,  0.00000,  0.00,  0.00,  0.00,  0.00000,  0.000,  0.00000,  0.00000,  0.00000,  0.00000,  1
1057,  1081,  '99',  0.28570,  4.09364,  0.00000,  0.00,  0.00,  0.00,  0.00000,  0.000,  0.00000,  0.00000,  0.00000,  0.00000,  1
1057,  1084,  '99',  0.63237,  2.73125,  0.00000,  0.00,  0.00,  0.00,  0.00000,  0.000,  0.00000,  0.00000,  0.00000,  0.00000,  1
1057,  3048,  '99',  0.19139,  2.76595,  0.00000,  0.00,  0.00,  0.00,  0.00000,  0.000,  0.00000,  0.00000,  0.00000,  0.00000,  1
1063,  1066,  '99',  0.11123,  1.30926,  0.00000,  0.00,  0.00,  0.00,  0.00000,  0.000,  0.00000,  0.00000,  0.00000,  0.00000,  1
1063,  1084,  '99',  0.25758,  1.23746,  0.00000,  0.00,  0.00,  0.00,  0.00000,  0.000,  0.00000,  0.00000,  0.00000,  0.00000,  1
1063,  3048,  '99',  0.27606,  2.83892,  0.00000,  0.00,  0.00,  0.00,  0.00000,  0.000,  0.00000,  0.00000,  0.00000,  0.00000,  1
1066,  1084,  '99',  0.80464,  2.60295,  0.00000,  0.00,  0.00,  0.00,  0.00000,  0.000,  0.00000,  0.00000,  0.00000,  0.00000,  1
1070,  1082,  '99',  0.02809,  0.20012,  0.00000,  0.00,  0.00,  0.00,  0.00000,  0.000,  0.00000,  0.00000,  0.00000,  0.00000,  1
1070,  3020,  '99',  -0.05165,  3.44136,  0.00000,  0.00,  0.00,  0.00,  0.00000,  0.000,  0.00000,  0.00000,  0.00000,  0.00000,  1
1072,  1073,  '99',  0.13220,  1.27156,  0.00000,  0.00,  0.00,  0.00,  0.00000,  0.000,  0.00000,  0.00000,  0.00000,  0.00000,  1
1072,  1074,  '99',  0.06105,  1.21832,  0.00000,  0.00,  0.00,  0.00,  0.00000,  0.000,  0.00000,  0.00000,  0.00000,  0.00000,  1
1072,  1075,  '99',  0.04033,  0.97514,  0.00000,  0.00,  0.00,  0.00,  0.00000,  0.000,  0.00000,  0.00000,  0.00000,  0.00000,  1
1072,  1076,  '99',  0.01569,  0.48304,  0.00000,  0.00,  0.00,  0.00,  0.00000,  0.000,  0.00000,  0.00000,  0.00000,  0.00000,  1
1072,  1077,  '99',  0.06735,  1.17857,  0.00000,  0.00,  0.00,  0.00,  0.00000,  0.000,  0.00000,  0.00000,  0.00000,  0.00000,  1
1072,  1081,  '99',  0.01902,  0.65026,  0.00000,  0.00,  0.00,  0.00,  0.00000,  0.000,  0.00000,  0.00000,  0.00000,  0.00000,  1
...